Questionable use of curly braces in ".model sir870adp vdmos(rg=3 vto=2.9 rd=3.2m rs=1.5m rb={m} kp=100 mtriode=1.85 cgdmax=1.4n cgdmin=70p cgs=2.9n cjo=3.6n m=.4 a=.7 vj=.7 lambda=20m is=3p ksubthres=.08 mfg=siliconix vds=100 ron=5.5m qg=53.5n)"
    Error: undefined symbol in: "[m]"
Circuit: * E:\ITBA\Electronica IV\Electro4\TP1\Simulacion\boost.asc

Direct Newton iteration for .op point succeeded.

Date: Sat Mar 28 19:25:31 2020
Total elapsed time: 2.684 seconds.

tnom = 27
temp = 27
method = modified trap
totiter = 243197
traniter = 243188
tranpoints = 100252
accept = 100179
rejected = 73
matrix size = 20
fillins = 9
solver = Normal
Matrix Compiler1: 1.80 KB object code size  0.4/0.2/[0.2]
Matrix Compiler2: 1.77 KB object code size  0.2/0.2/[0.1]


