Circuit: * C:\Users\Marcelo\Documents\GitHub\Electro4\TP1\Simulacion\boost.asc

Direct Newton iteration for .op point succeeded.

Date: Sat Mar 28 17:31:48 2020
Total elapsed time: 0.127 seconds.

tnom = 27
temp = 27
method = modified trap
totiter = 5384
traniter = 5375
tranpoints = 1644
accept = 1255
rejected = 389
matrix size = 20
fillins = 8
solver = Normal
Matrix Compiler1:      98 opcodes  0.3/[0.2]/0.6
Matrix Compiler2: off  [0.1]/0.2/0.2

