Circuit: * C:\Users\Marcelo\Documents\GitHub\Electro4\TP1\Simulacion\boost.asc

Direct Newton iteration for .op point succeeded.

Date: Mon Mar 30 23:25:38 2020
Total elapsed time: 3.091 seconds.

tnom = 27
temp = 27
method = modified trap
totiter = 243111
traniter = 243102
tranpoints = 100251
accept = 100179
rejected = 72
matrix size = 20
fillins = 9
solver = Normal
Matrix Compiler1: 1.80 KB object code size  0.3/0.2/[0.1]
Matrix Compiler2: off  [0.1]/0.2/0.2

