Circuit: * C:\Users\Marcelo\Documents\GitHub\Electro4\TP1\Simulacion\tp1-pto3.asc

Direct Newton iteration for .op point succeeded.

Date: Tue Mar 31 01:59:18 2020
Total elapsed time: 0.360 seconds.

tnom = 27
temp = 27
method = modified trap
totiter = 74970
traniter = 74961
tranpoints = 20970
accept = 16279
rejected = 4691
matrix size = 20
fillins = 9
solver = Normal
Matrix Compiler1: 1.73 KB object code size  0.4/0.2/[0.1]
Matrix Compiler2: 1.78 KB object code size  0.2/0.2/[0.2]

